# STR package for  MODFLOW-2005, generated by Flopy.
75 1 0 0 1 86400.0 53 53 
        50         1         1  # stress period 1
1 26 1 1 1 0.0 2.0 11475.0 1.0 2.0 
1 26 2 1 2 0.0 2.0 11475.0 1.0 2.0 
1 26 3 1 3 0.0 2.0 11475.0 1.0 2.0 
1 26 4 1 4 0.0 2.0 11475.0 1.0 2.0 
1 26 5 1 5 0.0 2.0 11475.0 1.0 2.0 
1 26 6 1 6 0.0 2.0 11475.0 1.0 2.0 
1 26 7 1 7 0.0 2.0 11475.0 1.0 2.0 
1 26 8 1 8 0.0 2.0 11475.0 1.0 2.0 
1 26 9 1 9 0.0 2.0 11475.0 1.0 2.0 
1 26 10 1 10 0.0 2.0 11475.0 1.0 2.0 
1 26 11 1 11 0.0 2.0 11475.0 1.0 2.0 
1 26 12 1 12 0.0 2.0 11475.0 1.0 2.0 
1 26 13 1 13 0.0 2.0 11475.0 1.0 2.0 
1 26 14 1 14 0.0 2.0 11475.0 1.0 2.0 
1 26 15 1 15 0.0 2.0 11475.0 1.0 2.0 
1 26 16 1 16 0.0 2.0 11475.0 1.0 2.0 
1 26 17 1 17 0.0 2.0 11475.0 1.0 2.0 
1 26 18 1 18 0.0 2.0 11475.0 1.0 2.0 
1 26 19 1 19 0.0 2.0 11475.0 1.0 2.0 
1 26 20 1 20 0.0 2.0 11475.0 1.0 2.0 
1 26 21 1 21 0.0 2.0 11475.0 1.0 2.0 
1 26 22 1 22 0.0 2.0 11475.0 1.0 2.0 
1 26 23 1 23 0.0 2.0 11475.0 1.0 2.0 
1 26 24 1 24 0.0 2.0 11475.0 1.0 2.0 
1 26 25 1 25 0.0 2.0 11475.0 1.0 2.0 
1 26 26 1 26 0.0 2.0 11475.0 1.0 2.0 
1 26 27 1 27 0.0 2.0 11475.0 1.0 2.0 
1 26 28 1 28 0.0 2.0 11475.0 1.0 2.0 
1 26 29 1 29 0.0 2.0 11475.0 1.0 2.0 
1 26 30 1 30 0.0 2.0 11475.0 1.0 2.0 
1 26 31 1 31 0.0 2.0 11475.0 1.0 2.0 
1 26 32 1 32 0.0 2.0 11475.0 1.0 2.0 
1 26 33 1 33 0.0 2.0 11475.0 1.0 2.0 
1 26 34 1 34 0.0 2.0 11475.0 1.0 2.0 
1 26 35 1 35 0.0 2.0 11475.0 1.0 2.0 
1 26 36 1 36 0.0 2.0 11475.0 1.0 2.0 
1 26 37 1 37 0.0 2.0 11475.0 1.0 2.0 
1 26 38 1 38 0.0 2.0 11475.0 1.0 2.0 
1 26 39 1 39 0.0 2.0 11475.0 1.0 2.0 
1 26 40 1 40 0.0 2.0 11475.0 1.0 2.0 
1 26 41 1 41 0.0 2.0 11475.0 1.0 2.0 
1 26 42 1 42 0.0 2.0 11475.0 1.0 2.0 
1 26 43 1 43 0.0 2.0 11475.0 1.0 2.0 
1 26 44 1 44 0.0 2.0 11475.0 1.0 2.0 
1 26 45 1 45 0.0 2.0 11475.0 1.0 2.0 
1 26 46 1 46 0.0 2.0 11475.0 1.0 2.0 
1 26 47 1 47 0.0 2.0 11475.0 1.0 2.0 
1 26 48 1 48 0.0 2.0 11475.0 1.0 2.0 
1 26 49 1 49 0.0 2.0 11475.0 1.0 2.0 
1 26 50 1 50 0.0 2.0 11475.0 1.0 2.0 
1.0 0.0010000000474974513 0.03999999910593033 
1.0 0.0010000000474974513 0.03999999910593033 
1.0 0.0010000000474974513 0.03999999910593033 
1.0 0.0010000000474974513 0.03999999910593033 
1.0 0.0010000000474974513 0.03999999910593033 
1.0 0.0010000000474974513 0.03999999910593033 
1.0 0.0010000000474974513 0.03999999910593033 
1.0 0.0010000000474974513 0.03999999910593033 
1.0 0.0010000000474974513 0.03999999910593033 
1.0 0.0010000000474974513 0.03999999910593033 
1.0 0.0010000000474974513 0.03999999910593033 
1.0 0.0010000000474974513 0.03999999910593033 
1.0 0.0010000000474974513 0.03999999910593033 
1.0 0.0010000000474974513 0.03999999910593033 
1.0 0.0010000000474974513 0.03999999910593033 
1.0 0.0010000000474974513 0.03999999910593033 
1.0 0.0010000000474974513 0.03999999910593033 
1.0 0.0010000000474974513 0.03999999910593033 
1.0 0.0010000000474974513 0.03999999910593033 
1.0 0.0010000000474974513 0.03999999910593033 
1.0 0.0010000000474974513 0.03999999910593033 
1.0 0.0010000000474974513 0.03999999910593033 
1.0 0.0010000000474974513 0.03999999910593033 
1.0 0.0010000000474974513 0.03999999910593033 
1.0 0.0010000000474974513 0.03999999910593033 
1.0 0.0010000000474974513 0.03999999910593033 
1.0 0.0010000000474974513 0.03999999910593033 
1.0 0.0010000000474974513 0.03999999910593033 
1.0 0.0010000000474974513 0.03999999910593033 
1.0 0.0010000000474974513 0.03999999910593033 
1.0 0.0010000000474974513 0.03999999910593033 
1.0 0.0010000000474974513 0.03999999910593033 
1.0 0.0010000000474974513 0.03999999910593033 
1.0 0.0010000000474974513 0.03999999910593033 
1.0 0.0010000000474974513 0.03999999910593033 
1.0 0.0010000000474974513 0.03999999910593033 
1.0 0.0010000000474974513 0.03999999910593033 
1.0 0.0010000000474974513 0.03999999910593033 
1.0 0.0010000000474974513 0.03999999910593033 
1.0 0.0010000000474974513 0.03999999910593033 
1.0 0.0010000000474974513 0.03999999910593033 
1.0 0.0010000000474974513 0.03999999910593033 
1.0 0.0010000000474974513 0.03999999910593033 
1.0 0.0010000000474974513 0.03999999910593033 
1.0 0.0010000000474974513 0.03999999910593033 
1.0 0.0010000000474974513 0.03999999910593033 
1.0 0.0010000000474974513 0.03999999910593033 
1.0 0.0010000000474974513 0.03999999910593033 
1.0 0.0010000000474974513 0.03999999910593033 
1.0 0.0010000000474974513 0.03999999910593033 
